/batch
/config,noeldb,1     ! force off writing results to database
*get,_wallstrt,active,,time,wall
! ANSYS input file written by Workbench version 2023 R2
! File used for geometry attach: C:\Users\skrua\Desktop\CAE machine\2week_class\Dog_bone.x_t
/title,wbnew--Static Structural (A5)
! ****** Begin Custom Load Command Snippet ******
/COM, ACT Extensions:
/COM,     LSDYNA, 2023.2
/COM,     5f463412-bd3e-484b-87e7-cbc0a665e474, wbex
/COM,/COM,     ANSYSMotion, 2023.2
/COM,     20180725-3f81-49eb-9f31-41364844c769, wbex
/COM,
! ****** End   Custom Load Command Snippet ******
*DIM,_wb_ProjectScratch_dir,string,248
_wb_ProjectScratch_dir(1) = 'C:\Users\skrua\AppData\Local\Temp\WB_skrua_37808_2\_ProjectScratch\Scr2655\'
*DIM,_wb_SolverFiles_dir,string,248
_wb_SolverFiles_dir(1) = 'C:\Users\skrua\AppData\Local\Temp\WB_skrua_37808_2\wbnew_files\dp0\SYS\MECH\'
*DIM,_wb_userfiles_dir,string,248
_wb_userfiles_dir(1) = 'C:\Users\skrua\AppData\Local\Temp\WB_skrua_37808_2\wbnew_files\user_files\'
/com,--- Data in consistent NMM units. See Solving Units in the help system for more information.
/units,MPA
/nopr
/wb,file,start              !  signify a WB generated input file
/prep7
! Turn off shape checking because checks already performed inside WB mesher.
! See help system for more information.
SHPP,OFF,,NOWARN
/nolist
etcon,set             ! allow ANSYS to choose best KEYOP's for 180x elements, resets any applicable keyopt to MAPDL defaults
/com,*********** Nodes for the whole assembly ***********
nblock,3,,18201
(1i9,3e20.9e3)
        1     3.322368315E+00     1.176379356E+01     3.750000000E-01
        2    -1.478525526E+00    -1.273029026E+01     3.750000000E-01
        3    -5.322130261E-01     1.205263100E+01     3.750000000E-01
        4    -2.440634500E+00     1.381127374E+01     3.750000000E-01
        5    -9.634175307E-01     1.185665931E+01     3.750000000E-01
        6    -1.996218099E+00     1.274517558E+01     3.750000000E-01
        7     1.448031596E+00     1.310892965E+01     3.750000000E-01
        8    -8.955022134E-01     1.218075958E+01     3.750000000E-01
        9     4.467436250E-01    -1.310138553E+01     3.750000000E-01
       10    -2.511556551E-02    -1.310780503E+01     3.750000000E-01
       11     5.262165410E-01     1.250996081E+01     3.750000000E-01
       12    -1.636676178E-02    -1.274782062E+01     3.750000000E-01
       13     9.061883031E-01    -1.306202449E+01     3.750000000E-01
       14    -5.014286260E-01    -1.302222624E+01     3.750000000E-01
       15     6.605619009E-02     1.256912827E+01     3.750000000E-01
       16    -8.615954603E-01     1.258769211E+01     3.750000000E-01
       17     4.464351902E-01     1.201445949E+01     3.750000000E-01
       18     1.015979592E+00     1.242034536E+01     3.750000000E-01
       19     3.238959929E-01    -1.261498372E+01     3.750000000E-01
       20     1.090002597E-01     1.209931274E+01     3.750000000E-01
! ... 16528 like lines cut
/wb,elem,start            !  set before creation of elements
/com,*********** Elements for Body 1 "Part 1" ***********
et,1,186
keyo,1,2,1          ! set full integration on SOLID186
eblock,19,solid,,2836
(19i9)
        1        1        1        1        0        0        0        0       20        0        1      301     1273     1272     1257     2286     1314     1315     1330
     5985     9847     9802     5984     9980     9978     9982    10032     5986     9851     9848     9803
        1        1        1        1        0        0        0        0       20        0        2      301     1257     1272     1273     2887     3843     3858     3859
     5984     9802     9847     5985    13390    15296    15311    13391     5987     9804     9849     9852
        1        1        1        1        0        0        0        0       20        0        3      155     1257     1272      163     2432     1330     1315     2424
     5306     9802     5341     5305    10033     9982     9985    12373     5307     9803     9848     5342
        1        1        1        1        0        0        0        0       20        0        4      155      163     1272     1257     2741     2749     3858     3843
     5305     5341     9802     5306    13003    13023    15296    13004     5308     5343     9849     9804
        1        1        1        1        0        0        0        0       20        0        5        1     1265      668      882     2586     1322     1919     1705
     4615     7582     7581     4614    10010    10007    11188    11189     4616     9828     7583     8478
        1        1        1        1        0        0        0        0       20        0        6        1      882      668     1265     2587     3468     3254     3851
     4614     7581     7582     4615    12620    14253    14254    12621     4617     8479     7584     9829
        1        1        1        1        0        0        0        0       20        0        7        1      882      883      669     2586     1705     1704     1918
     4614     8477     7586     4613    11189    11184    11185    11582     4616     8478     8482     7588
        1        1        1        1        0        0        0        0       20        0        8        1      669      883      882     2587     3255     3469     3468
     4613     7586     8477     4614    12619    14256    14721    12620     4617     7589     8483     8479
        1        1        1        1        0        0        0        0       20        0        9        1      669     1264      158     2586     1918     1323     2429
     4613     7587     5319     4612    11582    10013    10014    12380     4616     7588     9826     5320
        1        1        1        1        0        0        0        0       20        0       10        1      158     1264      669     2587     2744     3850     3255
     4612     5319     7587     4613    12618    13011    14257    12619     4617     5321     9827     7589
! ... 5653 like lines cut
!Material Id = {C5D8F263-521F-4EF8-8549-681C30ECAF8D}
/wb,elem,end               !  done creating elements
/com,*********** Send User Defined Coordinate System(s) ***********
csys,0
toffst,273.15,  ! Temperature offset from absolute zero
/com,*********** Set Reference Temperature ***********
tref,22.
/wb,mat,start              !  starting to send materials
/com,*********** Send Materials ***********
MP,EX,1,200000,	! tonne s^-2 mm^-1
MP,NUXY,1,0.3,
MP,DENS,1,7.85e-09,	! tonne mm^-3
MP,UVID,1,d528d673-8c23-48c5-803e-0e58f7f45c1a

/wb,mat,end                !  done sending materials
!************************* Model Summary ********************
!Part 1,	SS400,	matid,	1
!************************* End Model Summary ********************
! get the diagonal of the bounding box. Needed later for other things
*get,_xmin,node,,mnloc,x
*get,_ymin,node,,mnloc,y
*get,_zmin,node,,mnloc,z
*get,_xmax,node,,mxloc,x
*get,_ymax,node,,mxloc,y
*get,_zmax,node,,mxloc,z
_ASMDIAG=(_xmax-_xmin)*(_xmax-_xmin)+(_ymax-_ymin)*(_ymax-_ymin)+(_zmax-_zmin)*(_zmax-_zmin)
_ASMDIAG=SQRT(_ASMDIAG)
/wb,contact,start          !  starting to send contact
/wb,contact,end            !  done creating contacts
/golist
/wb,load,start             !  starting to send loads
/com,*********** Fixed Supports ***********
CMBLOCK,_FIXEDSU,NODE,      245
(8i10)
      4093      4094      4095      4096      4097      4098      4099      4100
      4101      4102      4103      4104      4105      4106      4107      4108
      4109      4110      4111      4112      4113      4114      4115      4116
      4117      4118      4119      4120      4121      4122      4123      4124
      4125      4126      4127      4128      4129      4130      4131      4132
      4133      4134      4135      4136      4137      4138      4139      4140
      4141      4142      4143      4144      4145      4146      4147      4148
      4149      4150      4151      4152      4153      4154      4155      4156
      4157      4158      4159      4160      4161      4162      4163      4164
      4165      4166      4167      4168      4169      4170      4171      4172
      4173      4174      4175      4176      4177      4178      4179      4180
      4181      4182      4183      4184      4185     15755     15756     15757
     15758     15759     15760     15761     15762     15763     15764     15765
     15766     15767     15768     15769     15770     15771     15772     15773
     15774     15775     15776     15777     15778     15779     15780     15781
     15782     15783     15784     15785     15786     15787     15788     15789
     15790     15791     15792     15793     15794     15795     15796     15797
     15798     15799     15800     15801     15802     15803     15804     15805
     15806     15807     15808     15809     15810     15811     15812     15813
     15814     15815     15816     15817     15818     15819     15820     15821
! ... 11 like lines cut
cmsel,s,_FIXEDSU
d,all,all
nsel,all
/com,*********** Define Pressure Using Surface Effect Elements "Pressure" ***********
et,2,154
mat,2
eblock,10,,,60
(15i9)
     6161        2        2        2        0     4429     4370     4427     4428    16189    16188    16273    16274
     6162        2        2        2        0     3971     3972     4370     4429    15511    15514    16189    15512
     6163        2        2        2        0     4370     4371     4426     4427    16187    16191    16272    16188
     6164        2        2        2        0     3972     3973     4371     4370    15513    15516    16187    15514
     6165        2        2        2        0     4371     4372     4425     4426    16190    16193    16271    16191
     6166        2        2        2        0     3973     3974     4372     4371    15515    15518    16190    15516
     6167        2        2        2        0     4372     4373     4424     4425    16192    16195    16270    16193
     6168        2        2        2        0     3974     3975     4373     4372    15517    15520    16192    15518
     6169        2        2        2        0     4373     4374     4423     4424    16194    16197    16269    16195
     6170        2        2        2        0     3975     3976     4374     4373    15519    15522    16194    15520
     6171        2        2        2        0     4374     4375     4422     4423    16196    16199    16268    16197
     6172        2        2        2        0     3976     3977     4375     4374    15521    15524    16196    15522
     6173        2        2        2        0     4375     4376     4421     4422    16198    16201    16267    16199
     6174        2        2        2        0     3977     3978     4376     4375    15523    15526    16198    15524
     6175        2        2        2        0     4376     4377     4420     4421    16200    16203    16266    16201
     6176        2        2        2        0     3978     3979     4377     4376    15525    15528    16200    15526
     6177        2        2        2        0     4377     4378     4419     4420    16202    16205    16265    16203
     6178        2        2        2        0     3979     3980     4378     4377    15527    15530    16202    15528
     6179        2        2        2        0     4378     4379     4418     4419    16204    16207    16264    16205
     6180        2        2        2        0     3980     3981     4379     4378    15529    15532    16204    15530
! ... 41 like lines cut
esel,s,type,,2
keyop,2,7,0                ! Use deformed area for application of load
esel,all
esel,all
/gst,on,on
fini
*get,_numnode,node,0,count
*get,_numelem,elem,0,count
*get, _MAXELEMNUM, elem, 0, NUM, MAX
*get, _MAXNODENUM, node, 0, NUM, MAX
*get, _MAXELEMTYPE, etyp, 0, NUM, MAX
*get, _MAXREALCONST, rcon, 0, NUM, MAX
/go
/wb,load,end               !  done creating loads
/com,--- Number of total nodes = %_numnode%
/com,--- Number of contact elements = 60
/com,--- Number of spring elements = 0
/com,--- Number of bearing elements = 0
/com,--- Number of solid elements = 2836
/com,--- Number of condensed parts = 0
/com,--- Number of total elements = %_numelem%
*get,_wallbsol,active,,time,wall
/com,****************************************************************************
/com,*************************    SOLUTION       ********************************
/com,****************************************************************************
/solu
antype,0                   ! static analysis
_thickRatio=  0     ! Ratio of thick parts in the model
eqsl,sparse,,,,,1
cntr,print,1               ! print out contact info and also make no initial contact an error
cncheck,dmp		!	Enable program controlled contact splitting for distributed memory parallel run
dmpoption,emat,no             ! Don't combine emat file for DANSYS
dmpoption,esav,no             ! Don't combine esav file for DANSYS
nldiag,cont,iter           ! print out contact info each equilibrium iteration
rescontrol,,none                 ! Do not keep any restart files
/com,****************************************************
/com,******************* SOLVE FOR LS 1 OF 1 ****************
esel,s,type,,2
nsle
sf,all,pres,25.
nsel,all
esel,all
esel,all
/nopr
/gopr
nsub,1,1,1
time,1.
outres,erase
outres,all,none
outres,nsol,all,
outres,rsol,all
outres,eangl,all
outres,etmp,all
outres,veng,all
outres,strs,all,
outres,epel,all,
outres,eppl,all,
outres,cont,all,
! *********** WB SOLVE COMMAND ***********
! check interactive state
*get,ANSINTER_,active,,int
*if,ANSINTER_,ne,0,then
/eof
*endif
solve
/com *************** Write FE CONNECTORS ********* 
CEWRITE,file,ce,,INTE
/com,****************************************************
/com,*************** FINISHED SOLVE FOR LS 1 *************
*get,_wallasol,active,,time,wall
/nopr
*get,_numnode,node,0,count
*get,_numelem,elem,0,count
*get, _MAXELEMNUM, elem, 0, NUM, MAX
*get, _MAXNODENUM, node, 0, NUM, MAX,,,INTERNAL
*get, _MAXELEMTYPE, etyp, 0, NUM, MAX
*get, _MAXREALCONST, rcon, 0, NUM, MAX
*get,_NSOLTHREADS,active,0,ntfs
*get,_NSOLPROCESSES,active,0,npfs
/gopr
/post1
xmlo,ENCODING,ISO-8859-1
xmlo,parm
/xml,parm,xml
fini
/gopr
*get,_walldone,active,,time,wall
_preptime=(_wallbsol-_wallstrt)*3600
_solvtime=(_wallasol-_wallbsol)*3600
_posttime=(_walldone-_wallasol)*3600
_totaltim=(_walldone-_wallstrt)*3600
*get,_dlbratio,active,0,solu,dlbr
*get,_combtime,active,0,solu,comb
*get,_ssmode,active,0,solu,ssmm
*get,_ndofs,active,0,solu,ndof
*get,_sol_end_time,active,0,set,time
*if,_sol_end_time,eq,1.000000,then
/fclean				!clean distributed files
*endif
/com,--- Total number of nodes = %_numnode%
/com,--- Total number of elements = %_numelem%
/com,--- Element load balance ratio = %_dlbratio%
/com,--- Time to combine distributed files = %_combtime%
/com,--- Sparse memory mode = %_ssmode%
/com,--- Number of DOF = %_ndofs%
/wb,file,end               ! done with WB generated input
