/batch
/config,noeldb,1     ! force off writing results to database
*get,_wallstrt,active,,time,wall
! ANSYS input file written by Workbench version 2023 R2
! File used for geometry attach: C:\Users\skrua\AppData\Local\Temp\WB_skrua_4292_2\wbnew_files\dp0\SYS\DM\SYS.agdb
/title,wbnew--Static Structural (A5)
! ****** Begin Custom Load Command Snippet ******
/COM, ACT Extensions:
/COM,     LSDYNA, 2023.2
/COM,     5f463412-bd3e-484b-87e7-cbc0a665e474, wbex
/COM,/COM,     ANSYSMotion, 2023.2
/COM,     20180725-3f81-49eb-9f31-41364844c769, wbex
/COM,
! ****** End   Custom Load Command Snippet ******
*DIM,_wb_ProjectScratch_dir,string,248
_wb_ProjectScratch_dir(1) = 'C:\Users\skrua\AppData\Local\Temp\WB_skrua_4292_2\_ProjectScratch\Scr86E2\'
*DIM,_wb_SolverFiles_dir,string,248
_wb_SolverFiles_dir(1) = 'C:\Users\skrua\AppData\Local\Temp\WB_skrua_4292_2\wbnew_files\dp0\SYS\MECH\'
*DIM,_wb_userfiles_dir,string,248
_wb_userfiles_dir(1) = 'C:\Users\skrua\AppData\Local\Temp\WB_skrua_4292_2\wbnew_files\user_files\'
/com,--- Data in consistent NMM units. See Solving Units in the help system for more information.
/units,MPA
/nopr
/wb,file,start              !  signify a WB generated input file
/prep7
! Turn off shape checking because checks already performed inside WB mesher.
! See help system for more information.
SHPP,OFF,,NOWARN
/nolist
etcon,set             ! allow ANSYS to choose best KEYOP's for 180x elements, resets any applicable keyopt to MAPDL defaults
/com,*********** Nodes for the whole assembly ***********
nblock,3,,11135
(1i9,3e20.9e3)
        1     3.674637681E+00     0.000000000E+00    -3.985507246E+00
        2     5.446626523E+00     0.000000000E+00    -3.986752079E+00
        3     7.225033863E+00     0.000000000E+00    -3.987636641E+00
        4     9.057138796E+00     0.000000000E+00    -3.997336298E+00
        5     1.100000000E+01     0.000000000E+00    -4.000000000E+00
        6     1.276674141E+01     0.000000000E+00    -4.000000000E+00
        7     1.453348281E+01     0.000000000E+00    -4.000000000E+00
        8     1.630022422E+01     0.000000000E+00    -4.000000000E+00
        9     1.806696563E+01     0.000000000E+00    -4.000000000E+00
       10     1.987321764E+01     0.000000000E+00    -4.001598410E+00
       11     2.173141173E+01     0.000000000E+00    -3.993907111E+00
       12     2.366407576E+01     0.000000000E+00    -3.968857697E+00
       13     4.485072225E+01     0.000000000E+00     6.621006880E+00
       14     4.310410888E+01     0.000000000E+00     8.134638067E+00
       15     4.052471142E+01     0.000000000E+00     9.291199653E+00
       16     3.833784378E+01     0.000000000E+00     8.794534953E+00
       17     3.628007190E+01     0.000000000E+00     8.654334624E+00
       18     3.505822251E+01     0.000000000E+00     6.190786310E+00
       19     7.423862180E+01     0.000000000E+00    -4.095281597E+01
       20     7.613304489E+01     0.000000000E+00    -4.100279448E+01
! ... 10104 like lines cut
/com,*********** Nodes for all Remote Points ***********
nblock,3
(1i9,3e20.9e3)
    10124     3.999999992E+01     3.000000026E+00     3.000000054E+00
    10125     9.999999776E+00     3.000000026E+00     0.000000000E+00
-1
/wb,elem,start            !  set before creation of elements
/com,*********** Elements for Body 1 "Solid" ***********
et,1,186
keyo,1,2,1          ! set full integration on SOLID186
eblock,19,solid,,1372
(19i9)
        1        1        1        1        0        0        0        0       20        0        1      787      853      943     1254     1726     1660     1570     1259
     5664     5818     6041     5665     7838     7609     6844     6845     5666     5819     6042     6833
        1        1        1        1        0        0        0        0       20        0        2      660      787     1254      661     1853     1726     1259     1852
     5334     5665     5336     5333     8013     6845     6846     8314     5335     5666     6833     5337
        1        1        1        1        0        0        0        0       20        0        3      408      409      661     1254     2105     2104     1852     1259
     4616     4622     5336     4617     8875     8316     6846     6847     4618     4623     5337     6833
        1        1        1        1        0        0        0        0       20        0        4      552      706     1251      554     1961     1807     1262     1959
     5036     5468     5040     5035     8221     6855     6856     8553     5037     5469     6828     5041
        1        1        1        1        0        0        0        0       20        0        5      395     2947     2946      706     2118     2518     2517     1807
     4565    10120     5470     4561     8907     9476     8223     8222     4564     9479     9477     5469
        1        1        1        1        0        0        0        0       20        0        6      706     2946     2945     1251     1807     2517     2516     1262
     5470    10119     6829     5468     8223     9474     6858     6855     5469     9477     9475     6828
        1        1        1        1        0        0        0        0       20        0        7      395      706      593      796     2118     1807     1920     1717
     4561     5140     5141     4562     8222     8220     7991     7992     4564     5469     5142     5689
        1        1        1        1        0        0        0        0       20        0        8       18      400      401      459     2495     2113     2112     2054
     3026     4583     4588     3028     8895     8892     8757     8759     3029     4585     4589     4770
        1        1        1        1        0        0        0        0       20        0        9       18      458     1256      400     2495     2055     1257     2113
     3027     4767     4584     3026     8761     6839     6840     8895     3029     4768     6836     4585
        1        1        1        1        0        0        0        0       20        0       10       17     1255     1256      458     2496     1258     1257     2055
     3023     6834     4767     3022     6841     6837     6839     8762     3024     6835     6836     4768
! ... 2725 like lines cut
!Material Id = {0F6E13AA-4651-42DB-9CB3-F5D8E4C4D160}
/wb,elem,end               !  done creating elements
/com,*********** Send User Defined Coordinate System(s) ***********
csys,0
toffst,273.15,  ! Temperature offset from absolute zero
/com,*********** Set Reference Temperature ***********
tref,22.
/wb,mat,start              !  starting to send materials
/com,*********** Send Materials ***********
Temperature = 'TEMP' ! Temperature
MP,DENS,1,2.77e-09,	! tonne mm^-3
MP,ALPX,1,2.3e-05,	! C^-1
MP,C,1,875000000,	! mm^2 s^-2 C^-1
MPTEMP,,,,,,,,
MPTEMP,1,-100
MPTEMP,2,0
MPTEMP,3,100
MPTEMP,4,200
MPDATA,KXX,1, ,114,144,165,175,	! tonne mm s^-3 C^-1
MPTEMP,,,,,,,,
MPTEMP,,,,,,,,
MPTEMP,1,0
MPTEMP,2,20
MPTEMP,3,100
MPDATA,RSVX,1, ,2.43e-05,2.67e-05,3.63e-05,	! ohm mm
MPTEMP,,,,,,,,
MP,EX,1,71000,	! tonne s^-2 mm^-1
MP,NUXY,1,0.33,
MP,MURX,1,1,
MP,UVID,1,4c2c0f36-de69-4983-bdaf-0343dd4e7d4e
MP,UMID,1,35d48138-be0c-4a97-839b-6fba81b9f834

/wb,mat,end                !  done sending materials
!************************* Model Summary ********************
!Solid,	Aluminum Alloy,	matid,	1
!************************* End Model Summary ********************
! get the diagonal of the bounding box. Needed later for other things
*get,_xmin,node,,mnloc,x
*get,_ymin,node,,mnloc,y
*get,_zmin,node,,mnloc,z
*get,_xmax,node,,mxloc,x
*get,_ymax,node,,mxloc,y
*get,_zmax,node,,mxloc,z
_ASMDIAG=(_xmax-_xmin)*(_xmax-_xmin)+(_ymax-_ymin)*(_ymax-_ymin)+(_zmax-_zmin)*(_zmax-_zmin)
_ASMDIAG=SQRT(_ASMDIAG)
/wb,contact,start          !  starting to send contact
/wb,contact,end            !  done creating contacts
/golist
/wb,load,start             !  starting to send loads
/com,********* Frictionless Supports X *********
CMBLOCK,_FRICSUX,NODE,       50
(8i10)
      2523      2524      2525      2526      2527      2528      2529      2530
      2531      2532      2931      2932      2933      2934      2935      2936
      2937      2938      2939      2940      9487      9488      9489      9490
      9491      9492      9493      9494      9495      9496      9497      9498
      9499      9500      9501      9502      9503      9504      9505      9506
     10104     10105     10106     10107     10108     10109     10110     10111
     10112     10113
cmsel,s,_FRICSUX
d,all,ux,0
nsel,all
/com,********* Frictionless Supports Z *********
CMBLOCK,_FRICSUZ,NODE,        8
(8i10)
      2725      2726      2737      2746      9892      9893      9895      9911

cmsel,s,_FRICSUZ
d,all,uz,0
nsel,all
/com,*********** Node Rotations ***********
nmod,2523,,,,-90.,0.,90.
nmod,2524,,,,-90.,-36.0000000000001,90.
nmod,2525,,,,-90.,-72.,90.
nmod,2526,,,,90.,-71.9999999999999,-90.
nmod,2527,,,,90.,-35.9999999999999,-90.
nmod,2528,,,,90.,0.,-90.
nmod,2529,,,,90.,35.9999999999999,-90.
nmod,2530,,,,90.,71.9999999999999,-90.
nmod,2531,,,,-90.,36.0000000000001,90.
nmod,2532,,,,-90.,72.0000000000001,90.
nmod,2931,,,,-90.,36.0000000000001,90.
nmod,2932,,,,-90.,0.,90.
nmod,2933,,,,-90.,-36.0000000000001,90.
nmod,2934,,,,-90.,-72.,90.
nmod,2935,,,,90.,-71.9999999999999,-90.
nmod,2936,,,,90.,-35.9999999999999,-90.
nmod,2937,,,,90.,0.,-90.
nmod,2938,,,,90.,35.9999999999999,-90.
nmod,2939,,,,90.,71.9999999999999,-90.
nmod,2940,,,,-90.,72.0000000000001,90.
! ... 30 like lines cut
/com,*********** Create Remote Point "Remote Point 2" ***********
*set,tid,3
*set,cid,2
et,cid,174
et,tid,170
keyo,tid,2,1               ! Don't fix the pilot node
keyo,tid,4,111111
keyo,cid,12,5              ! Bonded Contact 
keyo,cid,4,1               ! Deformable RBE3 style load
keyo,cid,2,2               ! MPC style contact
eblock,10,,,10
(15i9)
     4338        2        2        2        0     2523     2932     2931     2531     9489    10104     9505     9488
     4339        2        2        2        0     2931     2940     2532     2531    10105     9506     9504     9505
     4340        2        2        2        0     2940     2939     2530     2532    10113     9503     9502     9506
     4341        2        2        2        0     2939     2938     2529     2530    10112     9501     9500     9503
     4342        2        2        2        0     2938     2937     2528     2529    10111     9499     9498     9501
     4343        2        2        2        0     2937     2936     2527     2528    10110     9497     9496     9499
     4344        2        2        2        0     2936     2935     2526     2527    10109     9495     9494     9497
     4345        2        2        2        0     2935     2934     2525     2526    10108     9493     9492     9495
     4346        2        2        2        0     2934     2933     2524     2525    10107     9491     9490     9493
     4347        2        2        2        0     2933     2932     2523     2524    10106     9489     9487     9491
-1
*set,_npilot,10124
_npilot55=_npilot
type,tid
mat ,cid
real,cid
tshape,pilo
en,4348,_npilot
tshape
/com,*********** Create Remote Point "Remote Point" ***********
*set,tid,5
*set,cid,4
et,cid,174
et,tid,170
keyo,tid,2,1               ! Don't fix the pilot node
keyo,tid,4,111111
keyo,cid,12,5              ! Bonded Contact 
keyo,cid,4,1               ! Deformable RBE3 style load
keyo,cid,2,2               ! MPC style contact
eblock,10,,,1
(15i9)
     4349        4        4        4        0     2725     2726     2737     2746     9892     9895     9911     9893
-1
*set,_npilot,10125
_npilot58=_npilot
type,tid
mat ,cid
real,cid
tshape,pilo
en,4350,_npilot
tshape
/com,*********** Define Force Using Surface Effect Elements ***********
local,12,0,0.,0.,0.,0.,0.,0.
csys,0
et,6,154
mat,6
eblock,10,,,10
(15i9)
     4351        6        6        6       12     2533     2922     2921     2541     9509    10094     9525     9508
     4352        6        6        6       12     2921     2930     2542     2541    10095     9526     9524     9525
     4353        6        6        6       12     2930     2929     2540     2542    10103     9523     9522     9526
     4354        6        6        6       12     2929     2928     2539     2540    10102     9521     9520     9523
     4355        6        6        6       12     2928     2927     2538     2539    10101     9519     9518     9521
     4356        6        6        6       12     2927     2926     2537     2538    10100     9517     9516     9519
     4357        6        6        6       12     2926     2925     2536     2537    10099     9515     9514     9517
     4358        6        6        6       12     2925     2924     2535     2536    10098     9513     9512     9515
     4359        6        6        6       12     2924     2923     2534     2535    10097     9511     9510     9513
     4360        6        6        6       12     2923     2922     2533     2534    10096     9509     9507     9511
-1
esel,s,type,,6
keyop,6,2,1                ! Apply load in local coordinate system
keyop,6,7,1                ! Use original area so load is constant in large deformation
esel,all
/com,*********** Define Force Using Surface Effect Elements ***********
local,13,0,0.,0.,0.,0.,0.,0.
csys,0
et,7,154
mat,7
eblock,10,,,10
(15i9)
     4361        7        7        7       13     2513     2942     2941     2521     9469    10114     9485     9468
     4362        7        7        7       13     2941     2950     2522     2521    10115     9486     9484     9485
     4363        7        7        7       13     2950     2949     2520     2522    10123     9483     9482     9486
     4364        7        7        7       13     2949     2948     2519     2520    10122     9481     9480     9483
     4365        7        7        7       13     2948     2947     2518     2519    10121     9479     9478     9481
     4366        7        7        7       13     2947     2946     2517     2518    10120     9477     9476     9479
     4367        7        7        7       13     2946     2945     2516     2517    10119     9475     9474     9477
     4368        7        7        7       13     2945     2944     2515     2516    10118     9473     9472     9475
     4369        7        7        7       13     2944     2943     2514     2515    10117     9471     9470     9473
     4370        7        7        7       13     2943     2942     2513     2514    10116     9469     9467     9471
-1
esel,s,type,,7
keyop,7,2,1                ! Apply load in local coordinate system
keyop,7,7,1                ! Use original area so load is constant in large deformation
esel,all
et,8,14             ! spring element type
/com,*********** Construct Weak Springs, Prototype 1 ***********
*set,_delta,6.52610142259889
type,8
mat,9
real,9
r,9,1.99389302169269e-004
nsel,all
*get,_nspr,ndmx
_nspr=_nspr+1
esel,s,type,,1
nsle,s,active
*get,_minx,node,0,mnloc,x
*get,_miny,node,0,mnloc,y
*get,_minz,node,0,mnloc,z
*get,_maxx,node,0,mxloc,x
*get,_maxy,node,0,mxloc,y
*get,_maxz,node,0,mxloc,z
*dim,_ntets,arra,8
_ntets(1) = NODE(_minx,_miny,_minz)
_ntets(2) = NODE(_minx,_miny,_maxz)
_ntets(3) = NODE(_minx,_maxy,_minz)
_ntets(4) = NODE(_minx,_maxy,_maxz)
_ntets(5) = NODE(_maxx,_miny,_minz)
_ntets(6) = NODE(_maxx,_miny,_maxz)
_ntets(7) = NODE(_maxx,_maxy,_minz)
_ntets(8) = NODE(_maxx,_maxy,_maxz)
*do,_i,1,8
  n,_nspr,nx(_ntets(_i))+_delta,ny(_ntets(_i)),nz(_ntets(_i))
  e,_ntets(_i),_nspr
  d,_nspr,all
  _nspr=_nspr+1
  n,_nspr,nx(_ntets(_i)),ny(_ntets(_i))+_delta,nz(_ntets(_i))
  e,_ntets(_i),_nspr
  d,_nspr,all
  _nspr=_nspr+1
  n,_nspr,nx(_ntets(_i)),ny(_ntets(_i)),nz(_ntets(_i))+_delta
  e,_ntets(_i),_nspr
  d,_nspr,all
  _nspr=_nspr+1
*enddo
*set,_ntets
nsel,all
esel,all
/gst,on,on
fini
*get,_numnode,node,0,count
*get,_numelem,elem,0,count
*get, _MAXELEMNUM, elem, 0, NUM, MAX
*get, _MAXNODENUM, node, 0, NUM, MAX
*get, _MAXELEMTYPE, etyp, 0, NUM, MAX
*get, _MAXREALCONST, rcon, 0, NUM, MAX
/go
/wb,load,end               !  done creating loads
/com,--- Number of total nodes = %_numnode%
/com,--- Number of contact elements = 31
/com,--- Number of spring elements = 24
/com,--- Number of bearing elements = 0
/com,--- Number of solid elements = 1372
/com,--- Number of condensed parts = 0
/com,--- Number of total elements = %_numelem%
*get,_wallbsol,active,,time,wall
/com,****************************************************************************
/com,*************************    SOLUTION       ********************************
/com,****************************************************************************
/solu
antype,0                   ! static analysis
_thickRatio=  0     ! Ratio of thick parts in the model
eqsl,sparse,,,,,1
cntr,print,1               ! print out contact info and also make no initial contact an error
cncheck,dmp		!	Enable program controlled contact splitting for distributed memory parallel run
dmpoption,emat,no             ! Don't combine emat file for DANSYS
dmpoption,esav,no             ! Don't combine esav file for DANSYS
nldiag,cont,iter           ! print out contact info each equilibrium iteration
rescontrol,,none                 ! Do not keep any restart files
/com,****************************************************
/com,******************* SOLVE FOR LS 1 OF 1 ****************
esel,s,type,,6
nsle
sfe,all,1,pres,1,-8.21546769473213
sfe,all,2,pres,1,0.
sfe,all,3,pres,1,3.42325892855846
esel,s,type,,7
nsle
sfe,all,1,pres,1,8.21546769473213
sfe,all,2,pres,1,0.
sfe,all,3,pres,1,0.
nsel,all
esel,all
/nopr
/gopr
nsub,1,1,1
time,1.
outres,erase
outres,all,none
outres,nsol,all,
outres,rsol,all
outres,eangl,all
outres,etmp,all
outres,veng,all
outres,strs,all,
outres,epel,all,
outres,eppl,all,
outres,cont,all,
! *********** WB SOLVE COMMAND ***********
! check interactive state
*get,ANSINTER_,active,,int
*if,ANSINTER_,ne,0,then
/eof
*endif
solve
/com *************** Write FE CONNECTORS ********* 
CEWRITE,file,ce,,INTE
/com,****************************************************
/com,*************** FINISHED SOLVE FOR LS 1 *************
*get,_wallasol,active,,time,wall
/nopr
*get,_numnode,node,0,count
*get,_numelem,elem,0,count
*get, _MAXELEMNUM, elem, 0, NUM, MAX
*get, _MAXNODENUM, node, 0, NUM, MAX,,,INTERNAL
*get, _MAXELEMTYPE, etyp, 0, NUM, MAX
*get, _MAXREALCONST, rcon, 0, NUM, MAX
*get,_NSOLTHREADS,active,0,ntfs
*get,_NSOLPROCESSES,active,0,npfs
/gopr
/post1
xmlo,ENCODING,ISO-8859-1
xmlo,parm
/xml,parm,xml
fini
/gopr
*get,_walldone,active,,time,wall
_preptime=(_wallbsol-_wallstrt)*3600
_solvtime=(_wallasol-_wallbsol)*3600
_posttime=(_walldone-_wallasol)*3600
_totaltim=(_walldone-_wallstrt)*3600
*get,_dlbratio,active,0,solu,dlbr
*get,_combtime,active,0,solu,comb
*get,_ssmode,active,0,solu,ssmm
*get,_ndofs,active,0,solu,ndof
*get,_sol_end_time,active,0,set,time
*if,_sol_end_time,eq,1.000000,then
/fclean				!clean distributed files
*endif
/com,--- Total number of nodes = %_numnode%
/com,--- Total number of elements = %_numelem%
/com,--- Element load balance ratio = %_dlbratio%
/com,--- Time to combine distributed files = %_combtime%
/com,--- Sparse memory mode = %_ssmode%
/com,--- Number of DOF = %_ndofs%
/wb,file,end               ! done with WB generated input
