/batch
/config,noeldb,1     ! force off writing results to database
*get,_wallstrt,active,,time,wall
! ANSYS input file written by Workbench version 2023 R2
! File used for geometry attach: C:\Users\skrua\Desktop\CAE machine\LAB4\beam_625.x_t.x_t
/title,wbnew--Modal (A5)
! ****** Begin Custom Load Command Snippet ******
/COM, ACT Extensions:
/COM,     LSDYNA, 2023.2
/COM,     5f463412-bd3e-484b-87e7-cbc0a665e474, wbex
/COM,/COM,     ANSYSMotion, 2023.2
/COM,     20180725-3f81-49eb-9f31-41364844c769, wbex
/COM,
! ****** End   Custom Load Command Snippet ******
*DIM,_wb_ProjectScratch_dir,string,248
_wb_ProjectScratch_dir(1) = 'C:\Users\skrua\AppData\Local\Temp\WB_skrua_44068_2\_ProjectScratch\Scr880C\'
*DIM,_wb_SolverFiles_dir,string,248
_wb_SolverFiles_dir(1) = 'C:\Users\skrua\AppData\Local\Temp\WB_skrua_44068_2\wbnew_files\dp0\SYS\MECH\'
*DIM,_wb_userfiles_dir,string,248
_wb_userfiles_dir(1) = 'C:\Users\skrua\AppData\Local\Temp\WB_skrua_44068_2\wbnew_files\user_files\'
/com,--- Data in consistent NMM units. See Solving Units in the help system for more information.
/units,MPA
/nopr
/wb,file,start              !  signify a WB generated input file
/prep7
! Turn off shape checking because checks already performed inside WB mesher.
! See help system for more information.
SHPP,OFF,,NOWARN
/nolist
etcon,set             ! allow ANSYS to choose best KEYOP's for 180x elements, resets any applicable keyopt to MAPDL defaults
/com,*********** Nodes for the whole assembly ***********
nblock,3,,286
(1i9,3e20.9e3)
        1     1.900000000E+01     0.000000000E+00     0.000000000E+00
        2     1.900000000E+01     0.000000000E+00     2.976190476E+01
        3     1.900000000E+01     0.000000000E+00     5.952380952E+01
        4     1.900000000E+01     0.000000000E+00     8.928571429E+01
        5     1.900000000E+01     0.000000000E+00     1.190476190E+02
        6     1.900000000E+01     0.000000000E+00     1.488095238E+02
        7     1.900000000E+01     0.000000000E+00     1.785714286E+02
        8     1.900000000E+01     0.000000000E+00     2.083333333E+02
        9     1.900000000E+01     0.000000000E+00     2.380952381E+02
       10     1.900000000E+01     0.000000000E+00     2.678571429E+02
       11     1.900000000E+01     0.000000000E+00     2.976190476E+02
       12     1.900000000E+01     0.000000000E+00     3.273809524E+02
       13     1.900000000E+01     0.000000000E+00     3.571428571E+02
       14     1.900000000E+01     0.000000000E+00     3.869047619E+02
       15     1.900000000E+01     0.000000000E+00     4.166666667E+02
       16     1.900000000E+01     0.000000000E+00     4.464285714E+02
       17     1.900000000E+01     0.000000000E+00     4.761904762E+02
       18     1.900000000E+01     0.000000000E+00     5.059523810E+02
       19     1.900000000E+01     0.000000000E+00     5.357142857E+02
       20     1.900000000E+01     0.000000000E+00     5.654761905E+02
! ... 241 like lines cut
/wb,elem,start            !  set before creation of elements
/com,*********** Elements for Body 1 "Part 1" ***********
et,1,186
keyo,1,2,1          ! set full integration on SOLID186
eblock,19,solid,,21
(19i9)
        1        1        1        1        0        0        0        0       20        0        1        1       23       24        2       87       65       64       86
       90      154       93       89      238      236      237      260       91      155      157       94
        1        1        1        1        0        0        0        0       20        0        2        2       24       25        3       86       64       63       85
       93      156       96       92      237      234      235      259       94      157      159       97
        1        1        1        1        0        0        0        0       20        0        3        3       25       26        4       85       63       62       84
       96      158       99       95      235      232      233      258       97      159      161      100
        1        1        1        1        0        0        0        0       20        0        4        4       26       27        5       84       62       61       83
       99      160      102       98      233      230      231      257      100      161      163      103
        1        1        1        1        0        0        0        0       20        0        5        5       27       28        6       83       61       60       82
      102      162      105      101      231      228      229      256      103      163      165      106
        1        1        1        1        0        0        0        0       20        0        6        6       28       29        7       82       60       59       81
      105      164      108      104      229      226      227      255      106      165      167      109
        1        1        1        1        0        0        0        0       20        0        7        7       29       30        8       81       59       58       80
      108      166      111      107      227      224      225      254      109      167      169      112
        1        1        1        1        0        0        0        0       20        0        8        8       30       31        9       80       58       57       79
      111      168      114      110      225      222      223      253      112      169      171      115
        1        1        1        1        0        0        0        0       20        0        9        9       31       32       10       79       57       56       78
      114      170      117      113      223      220      221      252      115      171      173      118
        1        1        1        1        0        0        0        0       20        0       10       10       32       33       11       78       56       55       77
      117      172      120      116      221      218      219      251      118      173      175      121
! ... 23 like lines cut
!Material Id = {534AB8F6-EF47-4A1A-B7AF-F41314254910}
/wb,elem,end               !  done creating elements
/com,*********** Send User Defined Coordinate System(s) ***********
csys,0
toffst,273.15,  ! Temperature offset from absolute zero
/com,*********** Set Reference Temperature ***********
tref,22.
/wb,mat,start              !  starting to send materials
/com,*********** Send Materials ***********
Temperature = 'TEMP' ! Temperature
MP,DENS,1,7.85e-09,	! tonne mm^-3
MP,ALPX,1,1.2e-05,	! C^-1
MP,C,1,434000000,	! mm^2 s^-2 C^-1
MP,KXX,1,60.5,	! tonne mm s^-3 C^-1
MP,RSVX,1,0.00017,	! ohm mm
MP,EX,1,200000,	! tonne s^-2 mm^-1
MP,NUXY,1,0.3,
MP,MURX,1,10000,
MP,UVID,1,e260cbe2-ae78-4e8f-99e2-2fa7728b011d
MP,UMID,1,59002a79-71c2-428e-906b-55d7dbee100e

/wb,mat,end                !  done sending materials
!************************* Model Summary ********************
!Part 1,	Structural Steel,	matid,	1
!************************* End Model Summary ********************
! get the diagonal of the bounding box. Needed later for other things
*get,_xmin,node,,mnloc,x
*get,_ymin,node,,mnloc,y
*get,_zmin,node,,mnloc,z
*get,_xmax,node,,mxloc,x
*get,_ymax,node,,mxloc,y
*get,_zmax,node,,mxloc,z
_ASMDIAG=(_xmax-_xmin)*(_xmax-_xmin)+(_ymax-_ymin)*(_ymax-_ymin)+(_zmax-_zmin)*(_zmax-_zmin)
_ASMDIAG=SQRT(_ASMDIAG)
/wb,contact,start          !  starting to send contact
/wb,contact,end            !  done creating contacts
/golist
/wb,load,start             !  starting to send loads
/com,*********** Fixed Supports ***********
CMBLOCK,_FIXEDSU,NODE,        8
(8i10)
        22        44        66        88       152       153       196       239

cmsel,s,_FIXEDSU
d,all,all
nsel,all
/gst,on,on
fini
*get,_numnode,node,0,count
*get,_numelem,elem,0,count
*get, _MAXELEMNUM, elem, 0, NUM, MAX
*get, _MAXNODENUM, node, 0, NUM, MAX
*get, _MAXELEMTYPE, etyp, 0, NUM, MAX
*get, _MAXREALCONST, rcon, 0, NUM, MAX
/go
/wb,load,end               !  done creating loads
/com,--- Number of total nodes = %_numnode%
/com,--- Number of contact elements = 0
/com,--- Number of spring elements = 0
/com,--- Number of bearing elements = 0
/com,--- Number of solid elements = 21
/com,--- Number of condensed parts = 0
/com,--- Number of total elements = %_numelem%
*get,_wallbsol,active,,time,wall
/solu
antype,2                   ! modal analysis
_thickRatio=  0     ! Ratio of thick parts in the model
modopt,lanb,4
outres,erase
outres,all,none
outres,nsol,all
mxpand                    ! default expand in case of complex solution
dmpopt,esav,no
dmpopt,emat,no
dmpopt,full,no
! *********** WB SOLVE COMMAND ***********
! check interactive state
*get,ANSINTER_,active,,int
*if,ANSINTER_,ne,0,then
/eof
*endif
solve
/com *************** Write FE CONNECTORS ********* 
CEWRITE,file,ce,,INTE
*get,_nmodalsolproc,active,0,numcpu
fini
/nopr
*get,_numnode,node,0,count
*get,_numelem,elem,0,count
*get, _MAXELEMNUM, elem, 0, NUM, MAX
*get, _MAXNODENUM, node, 0, NUM, MAX,,,INTERNAL
*get, _MAXELEMTYPE, etyp, 0, NUM, MAX
*get, _MAXREALCONST, rcon, 0, NUM, MAX
*get,_NSOLTHREADS,active,0,ntfs
*get,_NSOLPROCESSES,active,0,npfs
/gopr
*get,_wallasol,active,,time,wall
/post1
/nopr
*dim,_direction,CHAR,6,1
_direction(1) = 'X'
_direction(2) = 'Y'
_direction(3) = 'Z'
_direction(4) = 'ROTX'
_direction(5) = 'ROTY'
_direction(6) = 'ROTZ'
*get,_lastLS,active,0,set,LSTP
*get,_beginset,active,0,set,nset,first,_lastLS
*get,_endset,active,0,set,nset,last,_lastLS
_nummodes = 0
*if,_endset,gt,0,then
_nummodes = _endset - _beginset + 1
*endif
*do,i_mode,1,_nummodes
   *do,j_component,1,6
			*get,PFACT_%i_mode%_%j_component%,MODE,%i_mode%,PFACT,,DIREC,_direction(%j_component%)
   *enddo
*enddo
*dim,_tmdirection,CHAR,6,1
_tmdirection(1) = 'X'
_tmdirection(2) = 'Y'
_tmdirection(3) = 'Z'
_tmdirection(4) = 'X'
_tmdirection(5) = 'Y'
_tmdirection(6) = 'Z'
*do,j_component,1,6
    *if,j_component,gt,3,then
        *get,TOTALMASS_%j_component%,ELEM,0,IOR,_tmdirection(%j_component%)
    *else
        *get,TOTALMASS_%j_component%,ELEM,0,MTOT,_tmdirection(%j_component%)
    *endif
*enddo
/gopr
xmlo,ENCODING,ISO-8859-1
xmlo,parm
/xml,parm,xml
fini
/gopr
*get,_walldone,active,,time,wall
_preptime=(_wallbsol-_wallstrt)*3600
_solvtime=(_wallasol-_wallbsol)*3600
_posttime=(_walldone-_wallasol)*3600
_totaltim=(_walldone-_wallstrt)*3600
*get,_dlbratio,active,0,solu,dlbr
*get,_combtime,active,0,solu,comb
*get,_ssmode,active,0,solu,ssmm
*get,_ndofs,active,0,solu,ndof
/fclean				!clean distributed files
/com,--- Total number of nodes = %_numnode%
/com,--- Total number of elements = %_numelem%
/com,--- Element load balance ratio = %_dlbratio%
/com,--- Time to combine distributed files = %_combtime%
/com,--- Sparse memory mode = %_ssmode%
/com,--- Number of DOF = %_ndofs%
/wb,file,end               ! done with WB generated input
