/batch
/config,noeldb,1     ! force off writing results to database
*get,_wallstrt,active,,time,wall
! ANSYS input file written by Workbench version 2023 R2
! File used for geometry attach: C:\Users\skrua\AppData\Local\Temp\WB_skrua_38332_2\wbnew_files\dp0\SYS\DM\SYS.agdb
/title,wbnew--Static Structural (A5)
! ****** Begin Custom Load Command Snippet ******
/COM, ACT Extensions:
/COM,     LSDYNA, 2023.2
/COM,     5f463412-bd3e-484b-87e7-cbc0a665e474, wbex
/COM,/COM,     ANSYSMotion, 2023.2
/COM,     20180725-3f81-49eb-9f31-41364844c769, wbex
/COM,
! ****** End   Custom Load Command Snippet ******
*DIM,_wb_ProjectScratch_dir,string,248
_wb_ProjectScratch_dir(1) = 'C:\Users\skrua\AppData\Local\Temp\WB_skrua_38332_2\_ProjectScratch\Scr3B56\'
*DIM,_wb_SolverFiles_dir,string,248
_wb_SolverFiles_dir(1) = 'C:\Users\skrua\AppData\Local\Temp\WB_skrua_38332_2\wbnew_files\dp0\SYS\MECH\'
*DIM,_wb_userfiles_dir,string,248
_wb_userfiles_dir(1) = 'C:\Users\skrua\AppData\Local\Temp\WB_skrua_38332_2\wbnew_files\user_files\'
/com,--- Data in consistent NMM units. See Solving Units in the help system for more information.
/units,MPA
/nopr
/wb,file,start              !  signify a WB generated input file
/prep7
! Turn off shape checking because checks already performed inside WB mesher.
! See help system for more information.
SHPP,OFF,,NOWARN
/nolist
etcon,set             ! allow ANSYS to choose best KEYOP's for 180x elements, resets any applicable keyopt to MAPDL defaults
/com,*********** Nodes for the whole assembly ***********
nblock,3,,290
(1i9,3e20.9e3)
        1     2.400000000E+03     3.600000000E+03     3.600000000E+03
        2     2.400000000E+03     3.600000000E+03     0.000000000E+00
        3     2.400000000E+03     3.600000000E+03     3.300000000E+03
        4     2.400000000E+03     3.600000000E+03     3.000000000E+03
        5     2.400000000E+03     3.600000000E+03     2.700000000E+03
        6     2.400000000E+03     3.600000000E+03     2.400000000E+03
        7     2.400000000E+03     3.600000000E+03     2.100000000E+03
        8     2.400000000E+03     3.600000000E+03     1.800000000E+03
        9     2.400000000E+03     3.600000000E+03     1.500000000E+03
       10     2.400000000E+03     3.600000000E+03     1.200000000E+03
       11     2.400000000E+03     3.600000000E+03     9.000000000E+02
       12     2.400000000E+03     3.600000000E+03     6.000000000E+02
       13     2.400000000E+03     3.600000000E+03     3.000000000E+02
       14     2.400000000E+03     3.600000000E+03     4.500000000E+03
       15     2.400000000E+03     3.600000000E+03     4.200000000E+03
       16     2.400000000E+03     3.600000000E+03     3.900000000E+03
       17     2.400000000E+03     0.000000000E+00     3.600000000E+03
       18     2.400000000E+03     0.000000000E+00     0.000000000E+00
       19     2.400000000E+03     0.000000000E+00     3.300000000E+03
       20     2.400000000E+03     0.000000000E+00     3.000000000E+03
! ... 245 like lines cut
/wb,elem,start            !  set before creation of elements
/com,*********** Elements for Body 1 "Line Body" ***********
et,1,188
keyo,1,3,2
eblock,19,solid,,15
(19i9)
        1        1        1        1        0        0        0        0        3        0        1        1        3      133
        1        1        1        1        0        0        0        0        3        0        2        3        4      134
        1        1        1        1        0        0        0        0        3        0        3        4        5      135
        1        1        1        1        0        0        0        0        3        0        4        5        6      136
        1        1        1        1        0        0        0        0        3        0        5        6        7      137
        1        1        1        1        0        0        0        0        3        0        6        7        8      138
        1        1        1        1        0        0        0        0        3        0        7        8        9      139
        1        1        1        1        0        0        0        0        3        0        8        9       10      140
        1        1        1        1        0        0        0        0        3        0        9       10       11      141
        1        1        1        1        0        0        0        0        3        0       10       11       12      142
        1        1        1        1        0        0        0        0        3        0       11       12       13      143
        1        1        1        1        0        0        0        0        3        0       12       13        2      144
        1        1        1        1        0        0        0        0        3        0       13       14       15      145
        1        1        1        1        0        0        0        0        3        0       14       15       16      146
        1        1        1        1        0        0        0        0        3        0       15       16        1      147
-1
!Material Id = {C3FBCD8D-11A3-4BC4-A187-5B35EED84D3A}
/com,*********** Elements for Body 2 "Line Body" ***********
et,2,188
keyo,2,3,2
eblock,19,solid,,15
(19i9)
        2        2        2        2        0        0        0        0        3        0       16       17       19      148
        2        2        2        2        0        0        0        0        3        0       17       19       20      149
        2        2        2        2        0        0        0        0        3        0       18       20       21      150
        2        2        2        2        0        0        0        0        3        0       19       21       22      151
        2        2        2        2        0        0        0        0        3        0       20       22       23      152
        2        2        2        2        0        0        0        0        3        0       21       23       24      153
        2        2        2        2        0        0        0        0        3        0       22       24       25      154
        2        2        2        2        0        0        0        0        3        0       23       25       26      155
        2        2        2        2        0        0        0        0        3        0       24       26       27      156
        2        2        2        2        0        0        0        0        3        0       25       27       28      157
        2        2        2        2        0        0        0        0        3        0       26       28       29      158
        2        2        2        2        0        0        0        0        3        0       27       29       18      159
        2        2        2        2        0        0        0        0        3        0       28       30       31      160
        2        2        2        2        0        0        0        0        3        0       29       31       32      161
        2        2        2        2        0        0        0        0        3        0       30       32       17      162
-1
!Material Id = {5484F90C-B4D0-49B3-BC96-09C49AB99A33}
/com,*********** Elements for Body 3 "Line Body" ***********
et,3,188
keyo,3,3,2
eblock,19,solid,,15
(19i9)
        3        3        3        3        0        0        0        0        3        0       31       33       35      163
        3        3        3        3        0        0        0        0        3        0       32       35       36      164
        3        3        3        3        0        0        0        0        3        0       33       36       37      165
        3        3        3        3        0        0        0        0        3        0       34       37       38      166
        3        3        3        3        0        0        0        0        3        0       35       38       39      167
        3        3        3        3        0        0        0        0        3        0       36       39       40      168
        3        3        3        3        0        0        0        0        3        0       37       40       41      169
        3        3        3        3        0        0        0        0        3        0       38       41       42      170
        3        3        3        3        0        0        0        0        3        0       39       42       43      171
        3        3        3        3        0        0        0        0        3        0       40       43       44      172
        3        3        3        3        0        0        0        0        3        0       41       44       45      173
        3        3        3        3        0        0        0        0        3        0       42       45       34      174
        3        3        3        3        0        0        0        0        3        0       43       46       47      175
        3        3        3        3        0        0        0        0        3        0       44       47       48      176
        3        3        3        3        0        0        0        0        3        0       45       48       33      177
-1
!Material Id = {517B400D-0536-4EBF-B45B-E1AAE07BEA41}
/com,*********** Elements for Body 4 "Line Body" ***********
et,4,188
keyo,4,3,2
eblock,19,solid,,15
(19i9)
        4        4        4        4        0        0        0        0        3        0       46       49       51      178
        4        4        4        4        0        0        0        0        3        0       47       51       52      179
        4        4        4        4        0        0        0        0        3        0       48       52       53      180
        4        4        4        4        0        0        0        0        3        0       49       53       54      181
        4        4        4        4        0        0        0        0        3        0       50       54       55      182
        4        4        4        4        0        0        0        0        3        0       51       55       56      183
        4        4        4        4        0        0        0        0        3        0       52       56       57      184
        4        4        4        4        0        0        0        0        3        0       53       57       58      185
        4        4        4        4        0        0        0        0        3        0       54       58       59      186
        4        4        4        4        0        0        0        0        3        0       55       59       60      187
        4        4        4        4        0        0        0        0        3        0       56       60       61      188
        4        4        4        4        0        0        0        0        3        0       57       61       50      189
        4        4        4        4        0        0        0        0        3        0       58       62       63      190
        4        4        4        4        0        0        0        0        3        0       59       63       64      191
        4        4        4        4        0        0        0        0        3        0       60       64       49      192
-1
!Material Id = {717D19BD-D7E1-4991-9C82-A2E14375FC9F}
/com,*********** Elements for Body 5 "Line Body" ***********
et,5,188
keyo,5,3,2
eblock,19,solid,,40
(19i9)
        5        5        5        5        0        0        0        0        3        0       61       62       66      193
        5        5        5        5        0        0        0        0        3        0       62       66       67      194
        5        5        5        5        0        0        0        0        3        0       63       67       68      195
        5        5        5        5        0        0        0        0        3        0       64       68       69      196
        5        5        5        5        0        0        0        0        3        0       65       69       70      197
        5        5        5        5        0        0        0        0        3        0       66       70       65      198
        5        5        5        5        0        0        0        0        3        0       67       65       71      199
        5        5        5        5        0        0        0        0        3        0       68       71       72      200
        5        5        5        5        0        0        0        0        3        0       69       72       73      201
        5        5        5        5        0        0        0        0        3        0       70       73       74      202
        5        5        5        5        0        0        0        0        3        0       71       74       75      203
        5        5        5        5        0        0        0        0        3        0       72       75       46      204
        5        5        5        5        0        0        0        0        3        0       73       46       76      205
        5        5        5        5        0        0        0        0        3        0       74       76       77      206
        5        5        5        5        0        0        0        0        3        0       75       77       78      207
        5        5        5        5        0        0        0        0        3        0       76       78       79      208
        5        5        5        5        0        0        0        0        3        0       77       79       80      209
        5        5        5        5        0        0        0        0        3        0       78       80       81      210
        5        5        5        5        0        0        0        0        3        0       79       81       82      211
        5        5        5        5        0        0        0        0        3        0       80       82       30      212
! ... 21 like lines cut
!Material Id = {179493A7-75D4-4B05-85F8-F05170D86487}
/com,*********** Elements for Body 6 "Line Body" ***********
et,6,188
keyo,6,3,2
eblock,19,solid,,8
(19i9)
        6        6        6        6        0        0        0        0        3        0      101        1      102      233
        6        6        6        6        0        0        0        0        3        0      102      102      103      234
        6        6        6        6        0        0        0        0        3        0      103      103      104      235
        6        6        6        6        0        0        0        0        3        0      104      104      101      236
        6        6        6        6        0        0        0        0        3        0      105        1      106      237
        6        6        6        6        0        0        0        0        3        0      106      106      107      238
        6        6        6        6        0        0        0        0        3        0      107      107      108      239
        6        6        6        6        0        0        0        0        3        0      108      108      105      240
-1
!Material Id = {32BDB9A9-1F91-426D-B8BB-9F16AB3357CF}
/com,*********** Elements for Body 7 "Line Body" ***********
et,7,188
keyo,7,3,2
eblock,19,solid,,8
(19i9)
        7        7        7        7        0        0        0        0        3        0      109       49      110      241
        7        7        7        7        0        0        0        0        3        0      110      110      111      242
        7        7        7        7        0        0        0        0        3        0      111      111      112      243
        7        7        7        7        0        0        0        0        3        0      112      112      109      244
        7        7        7        7        0        0        0        0        3        0      113       49      114      245
        7        7        7        7        0        0        0        0        3        0      114      114      115      246
        7        7        7        7        0        0        0        0        3        0      115      115      116      247
        7        7        7        7        0        0        0        0        3        0      116      116      113      248
-1
!Material Id = {F76E9326-C723-444F-AACF-BC6DF786210E}
/com,*********** Elements for Body 8 "Line Body" ***********
et,8,188
keyo,8,3,2
eblock,19,solid,,8
(19i9)
        8        8        8        8        0        0        0        0        3        0      117       33      118      249
        8        8        8        8        0        0        0        0        3        0      118      118      119      250
        8        8        8        8        0        0        0        0        3        0      119      119      120      251
        8        8        8        8        0        0        0        0        3        0      120      120      117      252
        8        8        8        8        0        0        0        0        3        0      121       33      122      253
        8        8        8        8        0        0        0        0        3        0      122      122      123      254
        8        8        8        8        0        0        0        0        3        0      123      123      124      255
        8        8        8        8        0        0        0        0        3        0      124      124      121      256
-1
!Material Id = {217C1580-3FAE-4708-9133-951C20F65179}
/com,*********** Elements for Body 9 "Line Body" ***********
et,9,188
keyo,9,3,2
eblock,19,solid,,8
(19i9)
        9        9        9        9        0        0        0        0        3        0      125       17      126      257
        9        9        9        9        0        0        0        0        3        0      126      126      127      258
        9        9        9        9        0        0        0        0        3        0      127      127      128      259
        9        9        9        9        0        0        0        0        3        0      128      128      125      260
        9        9        9        9        0        0        0        0        3        0      129       17      130      261
        9        9        9        9        0        0        0        0        3        0      130      130      131      262
        9        9        9        9        0        0        0        0        3        0      131      131      132      263
        9        9        9        9        0        0        0        0        3        0      132      132      129      264
-1
!Material Id = {ECDB5878-213E-4703-92D1-250690DB42B5}
/wb,elem,end               !  done creating elements
/com,*********** Send User Defined Coordinate System(s) ***********
csys,0
toffst,273.15,  ! Temperature offset from absolute zero
/com,*********** Set Reference Temperature ***********
tref,22.
/wb,mat,start              !  starting to send materials
/com,*********** Send Materials ***********
Temperature = 'TEMP' ! Temperature
MP,DENS,1,7.85e-09,	! tonne mm^-3
MP,ALPX,1,1.2e-05,	! C^-1
MP,C,1,434000000,	! mm^2 s^-2 C^-1
MP,KXX,1,60.5,	! tonne mm s^-3 C^-1
MP,RSVX,1,0.00017,	! ohm mm
MP,EX,1,200000,	! tonne s^-2 mm^-1
MP,NUXY,1,0.3,
MP,MURX,1,10000,
MP,UVID,1,f67cf97c-06bd-49d1-a100-4dadebb07cd7
MP,UMID,1,59002a79-71c2-428e-906b-55d7dbee100e

Temperature = 'TEMP' ! Temperature
MP,DENS,2,7.85e-09,	! tonne mm^-3
MP,ALPX,2,1.2e-05,	! C^-1
MP,C,2,434000000,	! mm^2 s^-2 C^-1
MP,KXX,2,60.5,	! tonne mm s^-3 C^-1
MP,RSVX,2,0.00017,	! ohm mm
MP,EX,2,200000,	! tonne s^-2 mm^-1
MP,NUXY,2,0.3,
MP,MURX,2,10000,
MP,UVID,2,f67cf97c-06bd-49d1-a100-4dadebb07cd7
MP,UMID,2,59002a79-71c2-428e-906b-55d7dbee100e

Temperature = 'TEMP' ! Temperature
MP,DENS,3,7.85e-09,	! tonne mm^-3
MP,ALPX,3,1.2e-05,	! C^-1
MP,C,3,434000000,	! mm^2 s^-2 C^-1
MP,KXX,3,60.5,	! tonne mm s^-3 C^-1
MP,RSVX,3,0.00017,	! ohm mm
MP,EX,3,200000,	! tonne s^-2 mm^-1
MP,NUXY,3,0.3,
MP,MURX,3,10000,
MP,UVID,3,f67cf97c-06bd-49d1-a100-4dadebb07cd7
MP,UMID,3,59002a79-71c2-428e-906b-55d7dbee100e

Temperature = 'TEMP' ! Temperature
MP,DENS,4,7.85e-09,	! tonne mm^-3
MP,ALPX,4,1.2e-05,	! C^-1
MP,C,4,434000000,	! mm^2 s^-2 C^-1
MP,KXX,4,60.5,	! tonne mm s^-3 C^-1
MP,RSVX,4,0.00017,	! ohm mm
MP,EX,4,200000,	! tonne s^-2 mm^-1
MP,NUXY,4,0.3,
MP,MURX,4,10000,
MP,UVID,4,f67cf97c-06bd-49d1-a100-4dadebb07cd7
MP,UMID,4,59002a79-71c2-428e-906b-55d7dbee100e

Temperature = 'TEMP' ! Temperature
MP,DENS,5,7.85e-09,	! tonne mm^-3
MP,ALPX,5,1.2e-05,	! C^-1
MP,C,5,434000000,	! mm^2 s^-2 C^-1
MP,KXX,5,60.5,	! tonne mm s^-3 C^-1
MP,RSVX,5,0.00017,	! ohm mm
MP,EX,5,200000,	! tonne s^-2 mm^-1
MP,NUXY,5,0.3,
MP,MURX,5,10000,
MP,UVID,5,f67cf97c-06bd-49d1-a100-4dadebb07cd7
MP,UMID,5,59002a79-71c2-428e-906b-55d7dbee100e

Temperature = 'TEMP' ! Temperature
MP,DENS,6,7.85e-09,	! tonne mm^-3
MP,ALPX,6,1.2e-05,	! C^-1
MP,C,6,434000000,	! mm^2 s^-2 C^-1
MP,KXX,6,60.5,	! tonne mm s^-3 C^-1
MP,RSVX,6,0.00017,	! ohm mm
MP,EX,6,200000,	! tonne s^-2 mm^-1
MP,NUXY,6,0.3,
MP,MURX,6,10000,
MP,UVID,6,f67cf97c-06bd-49d1-a100-4dadebb07cd7
MP,UMID,6,59002a79-71c2-428e-906b-55d7dbee100e

Temperature = 'TEMP' ! Temperature
MP,DENS,7,7.85e-09,	! tonne mm^-3
MP,ALPX,7,1.2e-05,	! C^-1
MP,C,7,434000000,	! mm^2 s^-2 C^-1
MP,KXX,7,60.5,	! tonne mm s^-3 C^-1
MP,RSVX,7,0.00017,	! ohm mm
MP,EX,7,200000,	! tonne s^-2 mm^-1
MP,NUXY,7,0.3,
MP,MURX,7,10000,
MP,UVID,7,f67cf97c-06bd-49d1-a100-4dadebb07cd7
MP,UMID,7,59002a79-71c2-428e-906b-55d7dbee100e

Temperature = 'TEMP' ! Temperature
MP,DENS,8,7.85e-09,	! tonne mm^-3
MP,ALPX,8,1.2e-05,	! C^-1
MP,C,8,434000000,	! mm^2 s^-2 C^-1
MP,KXX,8,60.5,	! tonne mm s^-3 C^-1
MP,RSVX,8,0.00017,	! ohm mm
MP,EX,8,200000,	! tonne s^-2 mm^-1
MP,NUXY,8,0.3,
MP,MURX,8,10000,
MP,UVID,8,f67cf97c-06bd-49d1-a100-4dadebb07cd7
MP,UMID,8,59002a79-71c2-428e-906b-55d7dbee100e

Temperature = 'TEMP' ! Temperature
MP,DENS,9,7.85e-09,	! tonne mm^-3
MP,ALPX,9,1.2e-05,	! C^-1
MP,C,9,434000000,	! mm^2 s^-2 C^-1
MP,KXX,9,60.5,	! tonne mm s^-3 C^-1
MP,RSVX,9,0.00017,	! ohm mm
MP,EX,9,200000,	! tonne s^-2 mm^-1
MP,NUXY,9,0.3,
MP,MURX,9,10000,
MP,UVID,9,f67cf97c-06bd-49d1-a100-4dadebb07cd7
MP,UMID,9,59002a79-71c2-428e-906b-55d7dbee100e

/wb,mat,end                !  done sending materials
/com,*********** Send Beam Properties ***********
SECTYPE,1,BEAM,HREC
SECDATA,152.4,152.4,4.7625,4.7625,4.7625,4.7625
secoffset,cent

SECTYPE,2,BEAM,HREC
SECDATA,152.4,152.4,4.7625,4.7625,4.7625,4.7625
secoffset,cent

SECTYPE,3,BEAM,HREC
SECDATA,152.4,152.4,4.7625,4.7625,4.7625,4.7625
secoffset,cent

SECTYPE,4,BEAM,HREC
SECDATA,152.4,152.4,4.7625,4.7625,4.7625,4.7625
secoffset,cent

SECTYPE,5,BEAM,I
SECDATA,152.78,152.78,454.66,13.335,13.335,8.001
secoffset,cent

SECTYPE,6,BEAM,CTUB
SECDATA,26.251,30.1625
secoffset,cent

SECTYPE,7,BEAM,CTUB
SECDATA,26.251,30.1625
secoffset,cent

SECTYPE,8,BEAM,CTUB
SECDATA,26.251,30.1625
secoffset,cent

SECTYPE,9,BEAM,CTUB
SECDATA,26.251,30.1625
secoffset,cent

!************************* Model Summary ********************
!Line Body,	Structural Steel,	matid,	1
!Line Body,	Structural Steel,	matid,	2
!Line Body,	Structural Steel,	matid,	3
!Line Body,	Structural Steel,	matid,	4
!Line Body,	Structural Steel,	matid,	5
!Line Body,	Structural Steel,	matid,	6
!Line Body,	Structural Steel,	matid,	7
!Line Body,	Structural Steel,	matid,	8
!Line Body,	Structural Steel,	matid,	9
!************************* End Model Summary ********************
! get the diagonal of the bounding box. Needed later for other things
*get,_xmin,node,,mnloc,x
*get,_ymin,node,,mnloc,y
*get,_zmin,node,,mnloc,z
*get,_xmax,node,,mxloc,x
*get,_ymax,node,,mxloc,y
*get,_zmax,node,,mxloc,z
_ASMDIAG=(_xmax-_xmin)*(_xmax-_xmin)+(_ymax-_ymin)*(_ymax-_ymin)+(_zmax-_zmin)*(_zmax-_zmin)
_ASMDIAG=SQRT(_ASMDIAG)
/wb,contact,start          !  starting to send contact
/wb,contact,end            !  done creating contacts
/golist
/wb,load,start             !  starting to send loads
/com,******* Constant Zero Displacement Y *******
CMBLOCK,_DISPZEROUY,NODE,        4
(8i10)
         2        18        34        50
cmsel,s,_DISPZEROUY
d,all,uy,0
nsel,all
/com,******* Constant Zero Displacement Z *******
CMBLOCK,_DISPZEROUZ,NODE,        4
(8i10)
         2        18        34        50
cmsel,s,_DISPZEROUZ
d,all,uz,0
nsel,all
/com,*********** Define Vertex Force Using Follower Elements ***********
et,10,201
keyo,10,1,1           ! Keep the direction constant
keyo,10,2,1           ! Apply Forces only, not moment
mat,10
real,10
type,10
en,133,65
r,10
rmod,10,1,1.0,              ! FX
mat,11
real,11
type,10
en,134,65
r,11
rmod,11,2,1.0,              ! FY
mat,12
real,12
type,10
en,135,65
r,12
rmod,12,3,1.0,              ! FZ
/gst,on,on
fini
*get,_numnode,node,0,count
*get,_numelem,elem,0,count
*get, _MAXELEMNUM, elem, 0, NUM, MAX
*get, _MAXNODENUM, node, 0, NUM, MAX
*get, _MAXELEMTYPE, etyp, 0, NUM, MAX
*get, _MAXREALCONST, rcon, 0, NUM, MAX
/go
/wb,load,end               !  done creating loads
/com,--- Number of total nodes = %_numnode%
/com,--- Number of contact elements = 0
/com,--- Number of spring elements = 0
/com,--- Number of bearing elements = 0
/com,--- Number of solid elements = 132
/com,--- Number of condensed parts = 0
/com,--- Number of total elements = %_numelem%
*get,_wallbsol,active,,time,wall
/com,****************************************************************************
/com,*************************    SOLUTION       ********************************
/com,****************************************************************************
/solu
antype,0                   ! static analysis
_thickRatio=  0     ! Ratio of thick parts in the model
eqsl,sparse,,,,,1
cntr,print,1               ! print out contact info and also make no initial contact an error
cncheck,dmp		!	Enable program controlled contact splitting for distributed memory parallel run
dmpoption,emat,no             ! Don't combine emat file for DANSYS
dmpoption,esav,no             ! Don't combine esav file for DANSYS
nldiag,cont,iter           ! print out contact info each equilibrium iteration
rescontrol,,none                 ! Do not keep any restart files
/com,****************************************************
/com,******************* SOLVE FOR LS 1 OF 1 ****************
esel,s,real,,10
sfe,all,1,pres,1,0.
esel,s,real,,11
sfe,all,1,pres,1,0.
esel,s,real,,12
sfe,all,1,pres,1,-500000.
esel,all
/nopr
/gopr
nsub,1,1,1
time,1.
outres,erase
outres,all,none
outres,nsol,all,
outres,rsol,all
outres,eangl,all
outres,etmp,all
outres,veng,all
outres,strs,all,
outres,epel,all,
outres,eppl,all,
outres,cont,all,
/nopr
esel,s,type,,1
esel,a,type,,2,9
cm,_elmisc,elem
esel,all
/gopr
outres,misc,all,_elmisc
! *********** WB SOLVE COMMAND ***********
! check interactive state
*get,ANSINTER_,active,,int
*if,ANSINTER_,ne,0,then
/eof
*endif
solve
/com *************** Write FE CONNECTORS ********* 
CEWRITE,file,ce,,INTE
/com,****************************************************
/com,*************** FINISHED SOLVE FOR LS 1 *************
*get,_wallasol,active,,time,wall
/nopr
*get,_numnode,node,0,count
*get,_numelem,elem,0,count
*get, _MAXELEMNUM, elem, 0, NUM, MAX
*get, _MAXNODENUM, node, 0, NUM, MAX,,,INTERNAL
*get, _MAXELEMTYPE, etyp, 0, NUM, MAX
*get, _MAXREALCONST, rcon, 0, NUM, MAX
*get,_NSOLTHREADS,active,0,ntfs
*get,_NSOLPROCESSES,active,0,npfs
/gopr
/post1
xmlo,ENCODING,ISO-8859-1
xmlo,parm
/xml,parm,xml
fini
/gopr
*get,_walldone,active,,time,wall
_preptime=(_wallbsol-_wallstrt)*3600
_solvtime=(_wallasol-_wallbsol)*3600
_posttime=(_walldone-_wallasol)*3600
_totaltim=(_walldone-_wallstrt)*3600
*get,_dlbratio,active,0,solu,dlbr
*get,_combtime,active,0,solu,comb
*get,_ssmode,active,0,solu,ssmm
*get,_ndofs,active,0,solu,ndof
*get,_sol_end_time,active,0,set,time
*if,_sol_end_time,eq,1.000000,then
/fclean				!clean distributed files
*endif
/com,--- Total number of nodes = %_numnode%
/com,--- Total number of elements = %_numelem%
/com,--- Element load balance ratio = %_dlbratio%
/com,--- Time to combine distributed files = %_combtime%
/com,--- Sparse memory mode = %_ssmode%
/com,--- Number of DOF = %_ndofs%
/wb,file,end               ! done with WB generated input
